New "Line.1" bus1=p1.1.2.3 bus2=p2.1.2.3 phases=3 length=150 units=ft linecode=trans1 Seasons=1 Ratings=[400,] normamps=400 emergamps=600
New "Line.2" bus1=p2.1.2.3 bus2=p3.1.2.3 phases=3 length=150 units=ft linecode=trans1 Seasons=1 Ratings=[400,] normamps=400 emergamps=600
New "Line.3" bus1=p2.1.2.3 bus2=p7.1.2.3 phases=3 length=150 units=ft linecode=trans1 Seasons=1 Ratings=[400,] normamps=400 emergamps=600
New "Line.4" bus1=p6.1.2.3 bus2=p11.1.2.3 phases=3 length=50 units=ft linecode=pri1 Seasons=1 Ratings=[400,] normamps=400 emergamps=600
New "Line.5" bus1=p6.1.2.3 bus2=p27.1.2.3 phases=3 length=50 units=ft linecode=pri1 Seasons=1 Ratings=[400,] normamps=400 emergamps=600
New "Line.6" bus1=p6.1.2.3 bus2=p44.1.2.3 phases=3 length=25 units=ft linecode=pri1 Seasons=1 Ratings=[400,] normamps=400 emergamps=600
New "Line.7" bus1=p44.1.2.3 bus2=p45.1.2.3 phases=3 length=25 units=ft linecode=pri1 Seasons=1 Ratings=[400,] normamps=400 emergamps=600
New "Line.8" bus1=p44.1.2.3 bus2=p62.1.2.3 phases=3 length=25 units=ft linecode=pri1 Seasons=1 Ratings=[400,] normamps=400 emergamps=600
New "Line.9" bus1=p10.1.2.3 bus2=p81.1.2.3 phases=3 length=50 units=ft linecode=pri1 Seasons=1 Ratings=[400,] normamps=400 emergamps=600
New "Line.10" bus1=p10.1.2.3 bus2=p97.1.2.3 phases=3 length=50 units=ft linecode=pri1 Seasons=1 Ratings=[400,] normamps=400 emergamps=600
New "Line.11" bus1=p10.1.2.3 bus2=p116.1.2.3 phases=3 length=25 units=ft linecode=pri1 Seasons=1 Ratings=[400,] normamps=400 emergamps=600
New "Line.12" bus1=p116.1.2.3 bus2=p117.1.2.3 phases=3 length=25 units=ft linecode=pri1 Seasons=1 Ratings=[400,] normamps=400 emergamps=600
New "Line.13" bus1=p116.1.2.3 bus2=p134.1.2.3 phases=3 length=25 units=ft linecode=pri1 Seasons=1 Ratings=[400,] normamps=400 emergamps=600
New "Line.14" bus1=p12.1.2.3 bus2=p13.1.2.3 phases=3 length=2500 units=ft linecode=pri1 Seasons=1 Ratings=[400,] normamps=400 emergamps=600
New "Line.15" bus1=p13.1.2.3 bus2=p14.1.2.3 phases=3 length=100 units=ft linecode=pri1 Seasons=1 Ratings=[400,] normamps=400 emergamps=600
New "Line.16" bus1=p13.1.2.3 bus2=p15.1.2.3 phases=3 length=100 units=ft linecode=pri1 Seasons=1 Ratings=[400,] normamps=400 emergamps=600
New "Line.17" bus1=p15.1.2.3 bus2=p16.1.2.3 phases=3 length=100 units=ft linecode=pri1 Seasons=1 Ratings=[400,] normamps=400 emergamps=600
New "Line.18" bus1=p16.1.2.3 bus2=p17.1.2.3 phases=3 length=100 units=ft linecode=pri1 Seasons=1 Ratings=[400,] normamps=400 emergamps=600
New "Line.19" bus1=p15.1.2.3 bus2=p18.1.2.3 phases=3 length=100 units=ft linecode=pri1 Seasons=1 Ratings=[400,] normamps=400 emergamps=600
New "Line.20" bus1=p18.1.2.3 bus2=p19.1.2.3 phases=3 length=100 units=ft linecode=pri1 Seasons=1 Ratings=[400,] normamps=400 emergamps=600
New "Line.21" bus1=p18.1.2.3 bus2=p20.1.2.3 phases=3 length=100 units=ft linecode=pri1 Seasons=1 Ratings=[400,] normamps=400 emergamps=600
New "Line.22" bus1=p20.1.2.3 bus2=p21.1.2.3 phases=3 length=100 units=ft linecode=pri1 Seasons=1 Ratings=[400,] normamps=400 emergamps=600
New "Line.23" bus1=p21.1.2.3 bus2=p22.1.2.3 phases=3 length=100 units=ft linecode=pri1 Seasons=1 Ratings=[400,] normamps=400 emergamps=600
New "Line.24" bus1=p20.1.2.3 bus2=p23.1.2.3 phases=3 length=100 units=ft linecode=pri1 Seasons=1 Ratings=[400,] normamps=400 emergamps=600
New "Line.25" bus1=p23.1.2.3 bus2=p24.1.2.3 phases=3 length=100 units=ft linecode=pri1 Seasons=1 Ratings=[400,] normamps=400 emergamps=600
New "Line.26" bus1=p23.1.2.3 bus2=p25.1.2.3 phases=3 length=100 units=ft linecode=pri1 Seasons=1 Ratings=[400,] normamps=400 emergamps=600
New "Line.27" bus1=p25.1.2.3 bus2=p26.1.2.3 phases=3 length=100 units=ft linecode=pri1 Seasons=1 Ratings=[400,] normamps=400 emergamps=600
New "Line.28" bus1=p28.1.2.3 bus2=p29.1.2.3 phases=3 length=2500 units=ft linecode=pri1 Seasons=1 Ratings=[400,] normamps=400 emergamps=600
New "Line.29" bus1=p29.1.2.3 bus2=p30.1.2.3 phases=3 length=100 units=ft linecode=pri1 Seasons=1 Ratings=[400,] normamps=400 emergamps=600
New "Line.30" bus1=p29.1.2.3 bus2=p31.1.2.3 phases=3 length=100 units=ft linecode=pri1 Seasons=1 Ratings=[400,] normamps=400 emergamps=600
New "Line.31" bus1=p31.1.2.3 bus2=p32.1.2.3 phases=3 length=100 units=ft linecode=pri1 Seasons=1 Ratings=[400,] normamps=400 emergamps=600
New "Line.32" bus1=p31.1.2.3 bus2=p33.1.2.3 phases=3 length=100 units=ft linecode=pri1 Seasons=1 Ratings=[400,] normamps=400 emergamps=600
New "Line.33" bus1=p33.1.2.3 bus2=p34.1.2.3 phases=3 length=100 units=ft linecode=pri1 Seasons=1 Ratings=[400,] normamps=400 emergamps=600
New "Line.34" bus1=p33.1.2.3 bus2=p35.1.2.3 phases=3 length=100 units=ft linecode=pri1 Seasons=1 Ratings=[400,] normamps=400 emergamps=600
New "Line.35" bus1=p35.1.2.3 bus2=p36.1.2.3 phases=3 length=100 units=ft linecode=pri1 Seasons=1 Ratings=[400,] normamps=400 emergamps=600
New "Line.36" bus1=p35.1.2.3 bus2=p37.1.2.3 phases=3 length=100 units=ft linecode=pri1 Seasons=1 Ratings=[400,] normamps=400 emergamps=600
New "Line.37" bus1=p37.1.2.3 bus2=p38.1.2.3 phases=3 length=100 units=ft linecode=pri1 Seasons=1 Ratings=[400,] normamps=400 emergamps=600
New "Line.38" bus1=p37.1.2.3 bus2=p39.1.2.3 phases=3 length=100 units=ft linecode=pri1 Seasons=1 Ratings=[400,] normamps=400 emergamps=600
New "Line.39" bus1=p39.1.2.3 bus2=p40.1.2.3 phases=3 length=100 units=ft linecode=pri1 Seasons=1 Ratings=[400,] normamps=400 emergamps=600
New "Line.40" bus1=p40.1.2.3 bus2=p41.1.2.3 phases=3 length=100 units=ft linecode=pri1 Seasons=1 Ratings=[400,] normamps=400 emergamps=600
New "Line.41" bus1=p39.1.2.3 bus2=p42.1.2.3 phases=3 length=100 units=ft linecode=pri1 Seasons=1 Ratings=[400,] normamps=400 emergamps=600
New "Line.42" bus1=p42.1.2.3 bus2=p43.1.2.3 phases=3 length=100 units=ft linecode=pri1 Seasons=1 Ratings=[400,] normamps=400 emergamps=600
New "Line.43" bus1=p46.1.2.3 bus2=p47.1.2.3 phases=3 length=2500 units=ft linecode=pri1 Seasons=1 Ratings=[400,] normamps=400 emergamps=600
New "Line.44" bus1=p47.1.2.3 bus2=p48.1.2.3 phases=3 length=100 units=ft linecode=pri1 Seasons=1 Ratings=[400,] normamps=400 emergamps=600
New "Line.45" bus1=p47.1.2.3 bus2=p49.1.2.3 phases=3 length=100 units=ft linecode=pri1 Seasons=1 Ratings=[400,] normamps=400 emergamps=600
New "Line.46" bus1=p49.1.2.3 bus2=p50.1.2.3 phases=3 length=100 units=ft linecode=pri1 Seasons=1 Ratings=[400,] normamps=400 emergamps=600
New "Line.47" bus1=p49.1.2.3 bus2=p51.1.2.3 phases=3 length=100 units=ft linecode=pri1 Seasons=1 Ratings=[400,] normamps=400 emergamps=600
New "Line.48" bus1=p51.1.2.3 bus2=p52.1.2.3 phases=3 length=100 units=ft linecode=pri1 Seasons=1 Ratings=[400,] normamps=400 emergamps=600
New "Line.49" bus1=p51.1.2.3 bus2=p53.1.2.3 phases=3 length=100 units=ft linecode=pri1 Seasons=1 Ratings=[400,] normamps=400 emergamps=600
New "Line.50" bus1=p53.1.2.3 bus2=p54.1.2.3 phases=3 length=100 units=ft linecode=pri1 Seasons=1 Ratings=[400,] normamps=400 emergamps=600
New "Line.51" bus1=p54.1.2.3 bus2=p55.1.2.3 phases=3 length=100 units=ft linecode=pri1 Seasons=1 Ratings=[400,] normamps=400 emergamps=600
New "Line.52" bus1=p55.1.2.3 bus2=p56.1.2.3 phases=3 length=100 units=ft linecode=pri1 Seasons=1 Ratings=[400,] normamps=400 emergamps=600
New "Line.53" bus1=p53.1.2.3 bus2=p57.1.2.3 phases=3 length=100 units=ft linecode=pri1 Seasons=1 Ratings=[400,] normamps=400 emergamps=600
New "Line.54" bus1=p57.1.2.3 bus2=p58.1.2.3 phases=3 length=100 units=ft linecode=pri1 Seasons=1 Ratings=[400,] normamps=400 emergamps=600
New "Line.55" bus1=p57.1.2.3 bus2=p59.1.2.3 phases=3 length=100 units=ft linecode=pri1 Seasons=1 Ratings=[400,] normamps=400 emergamps=600
New "Line.56" bus1=p59.1.2.3 bus2=p60.1.2.3 phases=3 length=100 units=ft linecode=pri1 Seasons=1 Ratings=[400,] normamps=400 emergamps=600
New "Line.57" bus1=p60.1.2.3 bus2=p61.1.2.3 phases=3 length=100 units=ft linecode=pri1 Seasons=1 Ratings=[400,] normamps=400 emergamps=600
New "Line.58" bus1=p63.1.2.3 bus2=p64.1.2.3 phases=3 length=2500 units=ft linecode=pri1 Seasons=1 Ratings=[400,] normamps=400 emergamps=600
New "Line.59" bus1=p64.1.2.3 bus2=p65.1.2.3 phases=3 length=100 units=ft linecode=pri1 Seasons=1 Ratings=[400,] normamps=400 emergamps=600
New "Line.60" bus1=p64.1.2.3 bus2=p66.1.2.3 phases=3 length=100 units=ft linecode=pri1 Seasons=1 Ratings=[400,] normamps=400 emergamps=600
New "Line.61" bus1=p66.1.2.3 bus2=p67.1.2.3 phases=3 length=100 units=ft linecode=pri1 Seasons=1 Ratings=[400,] normamps=400 emergamps=600
New "Line.62" bus1=p66.1.2.3 bus2=p68.1.2.3 phases=3 length=100 units=ft linecode=pri1 Seasons=1 Ratings=[400,] normamps=400 emergamps=600
New "Line.63" bus1=p68.1.2.3 bus2=p69.1.2.3 phases=3 length=100 units=ft linecode=pri1 Seasons=1 Ratings=[400,] normamps=400 emergamps=600
New "Line.64" bus1=p68.1.2.3 bus2=p70.1.2.3 phases=3 length=100 units=ft linecode=pri1 Seasons=1 Ratings=[400,] normamps=400 emergamps=600
New "Line.65" bus1=p70.1.2.3 bus2=p71.1.2.3 phases=3 length=100 units=ft linecode=pri1 Seasons=1 Ratings=[400,] normamps=400 emergamps=600
New "Line.66" bus1=p70.1.2.3 bus2=p72.1.2.3 phases=3 length=100 units=ft linecode=pri1 Seasons=1 Ratings=[400,] normamps=400 emergamps=600
New "Line.67" bus1=p72.1.2.3 bus2=p73.1.2.3 phases=3 length=100 units=ft linecode=pri1 Seasons=1 Ratings=[400,] normamps=400 emergamps=600
New "Line.68" bus1=p73.1.2.3 bus2=p74.1.2.3 phases=3 length=100 units=ft linecode=pri1 Seasons=1 Ratings=[400,] normamps=400 emergamps=600
New "Line.69" bus1=p72.1.2.3 bus2=p75.1.2.3 phases=3 length=100 units=ft linecode=pri1 Seasons=1 Ratings=[400,] normamps=400 emergamps=600
New "Line.70" bus1=p75.1.2.3 bus2=p76.1.2.3 phases=3 length=100 units=ft linecode=pri1 Seasons=1 Ratings=[400,] normamps=400 emergamps=600
New "Line.71" bus1=p75.1.2.3 bus2=p77.1.2.3 phases=3 length=100 units=ft linecode=pri1 Seasons=1 Ratings=[400,] normamps=400 emergamps=600
New "Line.72" bus1=p77.1.2.3 bus2=p78.1.2.3 phases=3 length=100 units=ft linecode=pri1 Seasons=1 Ratings=[400,] normamps=400 emergamps=600
New "Line.73" bus1=p77.1.2.3 bus2=p79.1.2.3 phases=3 length=100 units=ft linecode=pri1 Seasons=1 Ratings=[400,] normamps=400 emergamps=600
New "Line.74" bus1=p79.1.2.3 bus2=p80.1.2.3 phases=3 length=100 units=ft linecode=pri1 Seasons=1 Ratings=[400,] normamps=400 emergamps=600
New "Line.75" bus1=p82.1.2.3 bus2=p83.1.2.3 phases=3 length=2500 units=ft linecode=pri1 Seasons=1 Ratings=[400,] normamps=400 emergamps=600
New "Line.76" bus1=p83.1.2.3 bus2=p84.1.2.3 phases=3 length=100 units=ft linecode=pri1 Seasons=1 Ratings=[400,] normamps=400 emergamps=600
New "Line.77" bus1=p83.1.2.3 bus2=p85.1.2.3 phases=3 length=100 units=ft linecode=pri1 Seasons=1 Ratings=[400,] normamps=400 emergamps=600
New "Line.78" bus1=p85.1.2.3 bus2=p86.1.2.3 phases=3 length=100 units=ft linecode=pri1 Seasons=1 Ratings=[400,] normamps=400 emergamps=600
New "Line.79" bus1=p86.1.2.3 bus2=p87.1.2.3 phases=3 length=100 units=ft linecode=pri1 Seasons=1 Ratings=[400,] normamps=400 emergamps=600
New "Line.80" bus1=p85.1.2.3 bus2=p88.1.2.3 phases=3 length=100 units=ft linecode=pri1 Seasons=1 Ratings=[400,] normamps=400 emergamps=600
New "Line.81" bus1=p88.1.2.3 bus2=p89.1.2.3 phases=3 length=100 units=ft linecode=pri1 Seasons=1 Ratings=[400,] normamps=400 emergamps=600
New "Line.82" bus1=p88.1.2.3 bus2=p90.1.2.3 phases=3 length=100 units=ft linecode=pri1 Seasons=1 Ratings=[400,] normamps=400 emergamps=600
New "Line.83" bus1=p90.1.2.3 bus2=p91.1.2.3 phases=3 length=100 units=ft linecode=pri1 Seasons=1 Ratings=[400,] normamps=400 emergamps=600
New "Line.84" bus1=p91.1.2.3 bus2=p92.1.2.3 phases=3 length=100 units=ft linecode=pri1 Seasons=1 Ratings=[400,] normamps=400 emergamps=600
New "Line.85" bus1=p90.1.2.3 bus2=p93.1.2.3 phases=3 length=100 units=ft linecode=pri1 Seasons=1 Ratings=[400,] normamps=400 emergamps=600
New "Line.86" bus1=p93.1.2.3 bus2=p94.1.2.3 phases=3 length=100 units=ft linecode=pri1 Seasons=1 Ratings=[400,] normamps=400 emergamps=600
New "Line.87" bus1=p93.1.2.3 bus2=p95.1.2.3 phases=3 length=100 units=ft linecode=pri1 Seasons=1 Ratings=[400,] normamps=400 emergamps=600
New "Line.88" bus1=p95.1.2.3 bus2=p96.1.2.3 phases=3 length=100 units=ft linecode=pri1 Seasons=1 Ratings=[400,] normamps=400 emergamps=600
New "Line.89" bus1=p98.1.2.3 bus2=p99.1.2.3 phases=3 length=2500 units=ft linecode=pri1 Seasons=1 Ratings=[400,] normamps=400 emergamps=600
New "Line.90" bus1=p99.1.2.3 bus2=p100.1.2.3 phases=3 length=100 units=ft linecode=pri1 Seasons=1 Ratings=[400,] normamps=400 emergamps=600
New "Line.91" bus1=p99.1.2.3 bus2=p101.1.2.3 phases=3 length=100 units=ft linecode=pri1 Seasons=1 Ratings=[400,] normamps=400 emergamps=600
New "Line.92" bus1=p101.1.2.3 bus2=p102.1.2.3 phases=3 length=100 units=ft linecode=pri1 Seasons=1 Ratings=[400,] normamps=400 emergamps=600
New "Line.93" bus1=p101.1.2.3 bus2=p103.1.2.3 phases=3 length=100 units=ft linecode=pri1 Seasons=1 Ratings=[400,] normamps=400 emergamps=600
New "Line.94" bus1=p103.1.2.3 bus2=p104.1.2.3 phases=3 length=100 units=ft linecode=pri1 Seasons=1 Ratings=[400,] normamps=400 emergamps=600
New "Line.95" bus1=p103.1.2.3 bus2=p105.1.2.3 phases=3 length=100 units=ft linecode=pri1 Seasons=1 Ratings=[400,] normamps=400 emergamps=600
New "Line.96" bus1=p105.1.2.3 bus2=p106.1.2.3 phases=3 length=100 units=ft linecode=pri1 Seasons=1 Ratings=[400,] normamps=400 emergamps=600
New "Line.97" bus1=p106.1.2.3 bus2=p107.1.2.3 phases=3 length=100 units=ft linecode=pri1 Seasons=1 Ratings=[400,] normamps=400 emergamps=600
New "Line.98" bus1=p105.1.2.3 bus2=p108.1.2.3 phases=3 length=100 units=ft linecode=pri1 Seasons=1 Ratings=[400,] normamps=400 emergamps=600
New "Line.99" bus1=p108.1.2.3 bus2=p109.1.2.3 phases=3 length=100 units=ft linecode=pri1 Seasons=1 Ratings=[400,] normamps=400 emergamps=600
New "Line.100" bus1=p108.1.2.3 bus2=p110.1.2.3 phases=3 length=100 units=ft linecode=pri1 Seasons=1 Ratings=[400,] normamps=400 emergamps=600
New "Line.101" bus1=p110.1.2.3 bus2=p111.1.2.3 phases=3 length=100 units=ft linecode=pri1 Seasons=1 Ratings=[400,] normamps=400 emergamps=600
New "Line.102" bus1=p110.1.2.3 bus2=p112.1.2.3 phases=3 length=100 units=ft linecode=pri1 Seasons=1 Ratings=[400,] normamps=400 emergamps=600
New "Line.103" bus1=p112.1.2.3 bus2=p113.1.2.3 phases=3 length=100 units=ft linecode=pri1 Seasons=1 Ratings=[400,] normamps=400 emergamps=600
New "Line.104" bus1=p112.1.2.3 bus2=p114.1.2.3 phases=3 length=100 units=ft linecode=pri1 Seasons=1 Ratings=[400,] normamps=400 emergamps=600
New "Line.105" bus1=p114.1.2.3 bus2=p115.1.2.3 phases=3 length=100 units=ft linecode=pri1 Seasons=1 Ratings=[400,] normamps=400 emergamps=600
New "Line.106" bus1=p118.1.2.3 bus2=p119.1.2.3 phases=3 length=2500 units=ft linecode=pri1 Seasons=1 Ratings=[400,] normamps=400 emergamps=600
New "Line.107" bus1=p119.1.2.3 bus2=p120.1.2.3 phases=3 length=100 units=ft linecode=pri1 Seasons=1 Ratings=[400,] normamps=400 emergamps=600
New "Line.108" bus1=p119.1.2.3 bus2=p121.1.2.3 phases=3 length=100 units=ft linecode=pri1 Seasons=1 Ratings=[400,] normamps=400 emergamps=600
New "Line.109" bus1=p121.1.2.3 bus2=p122.1.2.3 phases=3 length=100 units=ft linecode=pri1 Seasons=1 Ratings=[400,] normamps=400 emergamps=600
New "Line.110" bus1=p121.1.2.3 bus2=p123.1.2.3 phases=3 length=100 units=ft linecode=pri1 Seasons=1 Ratings=[400,] normamps=400 emergamps=600
New "Line.111" bus1=p123.1.2.3 bus2=p124.1.2.3 phases=3 length=100 units=ft linecode=pri1 Seasons=1 Ratings=[400,] normamps=400 emergamps=600
New "Line.112" bus1=p123.1.2.3 bus2=p125.1.2.3 phases=3 length=100 units=ft linecode=pri1 Seasons=1 Ratings=[400,] normamps=400 emergamps=600
New "Line.113" bus1=p125.1.2.3 bus2=p126.1.2.3 phases=3 length=100 units=ft linecode=pri1 Seasons=1 Ratings=[400,] normamps=400 emergamps=600
New "Line.114" bus1=p125.1.2.3 bus2=p127.1.2.3 phases=3 length=100 units=ft linecode=pri1 Seasons=1 Ratings=[400,] normamps=400 emergamps=600
New "Line.115" bus1=p127.1.2.3 bus2=p128.1.2.3 phases=3 length=100 units=ft linecode=pri1 Seasons=1 Ratings=[400,] normamps=400 emergamps=600
New "Line.116" bus1=p127.1.2.3 bus2=p129.1.2.3 phases=3 length=100 units=ft linecode=pri1 Seasons=1 Ratings=[400,] normamps=400 emergamps=600
New "Line.117" bus1=p129.1.2.3 bus2=p130.1.2.3 phases=3 length=100 units=ft linecode=pri1 Seasons=1 Ratings=[400,] normamps=400 emergamps=600
New "Line.118" bus1=p130.1.2.3 bus2=p131.1.2.3 phases=3 length=100 units=ft linecode=pri1 Seasons=1 Ratings=[400,] normamps=400 emergamps=600
New "Line.119" bus1=p129.1.2.3 bus2=p132.1.2.3 phases=3 length=100 units=ft linecode=pri1 Seasons=1 Ratings=[400,] normamps=400 emergamps=600
New "Line.120" bus1=p132.1.2.3 bus2=p133.1.2.3 phases=3 length=100 units=ft linecode=pri1 Seasons=1 Ratings=[400,] normamps=400 emergamps=600
New "Line.121" bus1=p135.1.2.3 bus2=p136.1.2.3 phases=3 length=2500 units=ft linecode=pri1 Seasons=1 Ratings=[400,] normamps=400 emergamps=600
New "Line.122" bus1=p136.1.2.3 bus2=p137.1.2.3 phases=3 length=100 units=ft linecode=pri1 Seasons=1 Ratings=[400,] normamps=400 emergamps=600
New "Line.123" bus1=p136.1.2.3 bus2=p138.1.2.3 phases=3 length=100 units=ft linecode=pri1 Seasons=1 Ratings=[400,] normamps=400 emergamps=600
New "Line.124" bus1=p138.1.2.3 bus2=p139.1.2.3 phases=3 length=100 units=ft linecode=pri1 Seasons=1 Ratings=[400,] normamps=400 emergamps=600
New "Line.125" bus1=p139.1.2.3 bus2=p140.1.2.3 phases=3 length=100 units=ft linecode=pri1 Seasons=1 Ratings=[400,] normamps=400 emergamps=600
New "Line.126" bus1=p138.1.2.3 bus2=p141.1.2.3 phases=3 length=100 units=ft linecode=pri1 Seasons=1 Ratings=[400,] normamps=400 emergamps=600
New "Line.127" bus1=p141.1.2.3 bus2=p142.1.2.3 phases=3 length=100 units=ft linecode=pri1 Seasons=1 Ratings=[400,] normamps=400 emergamps=600
New "Line.128" bus1=p141.1.2.3 bus2=p143.1.2.3 phases=3 length=100 units=ft linecode=pri1 Seasons=1 Ratings=[400,] normamps=400 emergamps=600
New "Line.129" bus1=p143.1.2.3 bus2=p144.1.2.3 phases=3 length=100 units=ft linecode=pri1 Seasons=1 Ratings=[400,] normamps=400 emergamps=600
New "Line.130" bus1=p144.1.2.3 bus2=p145.1.2.3 phases=3 length=100 units=ft linecode=pri1 Seasons=1 Ratings=[400,] normamps=400 emergamps=600
New "Line.131" bus1=p145.1.2.3 bus2=p146.1.2.3 phases=3 length=100 units=ft linecode=pri1 Seasons=1 Ratings=[400,] normamps=400 emergamps=600
New "Line.132" bus1=p143.1.2.3 bus2=p147.1.2.3 phases=3 length=100 units=ft linecode=pri1 Seasons=1 Ratings=[400,] normamps=400 emergamps=600
New "Line.133" bus1=p147.1.2.3 bus2=p148.1.2.3 phases=3 length=100 units=ft linecode=pri1 Seasons=1 Ratings=[400,] normamps=400 emergamps=600
New "Line.134" bus1=p147.1.2.3 bus2=p149.1.2.3 phases=3 length=100 units=ft linecode=pri1 Seasons=1 Ratings=[400,] normamps=400 emergamps=600
New "Line.135" bus1=p149.1.2.3 bus2=p150.1.2.3 phases=3 length=100 units=ft linecode=pri1 Seasons=1 Ratings=[400,] normamps=400 emergamps=600
New "Line.136" bus1=s194.1.2.3 bus2=s193.1.2.3 phases=3 length=10 units=ft linecode=sec5 Seasons=1 Ratings=[400,] normamps=400 emergamps=600
New "Line.137" bus1=s195.1.2.3 bus2=s193.1.2.3 phases=3 length=10 units=ft linecode=sec5 Seasons=1 Ratings=[400,] normamps=400 emergamps=600
New "Line.138" bus1=s199.1.2.3 bus2=s198.1.2.3 phases=3 length=10 units=ft linecode=sec5 Seasons=1 Ratings=[400,] normamps=400 emergamps=600
New "Line.139" bus1=s200.1.2.3 bus2=s198.1.2.3 phases=3 length=10 units=ft linecode=sec5 Seasons=1 Ratings=[400,] normamps=400 emergamps=600
New "Line.140" bus1=s204.1.2.3 bus2=s203.1.2.3 phases=3 length=10 units=ft linecode=sec5 Seasons=1 Ratings=[400,] normamps=400 emergamps=600
New "Line.141" bus1=s205.1.2.3 bus2=s203.1.2.3 phases=3 length=10 units=ft linecode=sec5 Seasons=1 Ratings=[400,] normamps=400 emergamps=600
New "Line.142" bus1=s206.1.2.3 bus2=s203.1.2.3 phases=3 length=10 units=ft linecode=sec5 Seasons=1 Ratings=[400,] normamps=400 emergamps=600
New "Line.143" bus1=s211.1.2.3 bus2=s210.1.2.3 phases=3 length=10 units=ft linecode=sec5 Seasons=1 Ratings=[400,] normamps=400 emergamps=600
New "Line.144" bus1=s212.1.2.3 bus2=s210.1.2.3 phases=3 length=10 units=ft linecode=sec5 Seasons=1 Ratings=[400,] normamps=400 emergamps=600
New "Line.145" bus1=s213.1.2.3 bus2=s210.1.2.3 phases=3 length=10 units=ft linecode=sec5 Seasons=1 Ratings=[400,] normamps=400 emergamps=600
New "Line.146" bus1=s218.1.2.3 bus2=s217.1.2.3 phases=3 length=10 units=ft linecode=sec5 Seasons=1 Ratings=[400,] normamps=400 emergamps=600
New "Line.147" bus1=s219.1.2.3 bus2=s217.1.2.3 phases=3 length=10 units=ft linecode=sec5 Seasons=1 Ratings=[400,] normamps=400 emergamps=600
New "Line.148" bus1=s220.1.2.3 bus2=s217.1.2.3 phases=3 length=10 units=ft linecode=sec5 Seasons=1 Ratings=[400,] normamps=400 emergamps=600
New "Line.149" bus1=s225.1.2.3 bus2=s224.1.2.3 phases=3 length=10 units=ft linecode=sec5 Seasons=1 Ratings=[400,] normamps=400 emergamps=600
New "Line.150" bus1=s226.1.2.3 bus2=s224.1.2.3 phases=3 length=10 units=ft linecode=sec5 Seasons=1 Ratings=[400,] normamps=400 emergamps=600
New "Line.151" bus1=s227.1.2.3 bus2=s224.1.2.3 phases=3 length=10 units=ft linecode=sec5 Seasons=1 Ratings=[400,] normamps=400 emergamps=600
New "Line.152" bus1=s232.1.2.3 bus2=s231.1.2.3 phases=3 length=10 units=ft linecode=sec5 Seasons=1 Ratings=[400,] normamps=400 emergamps=600
New "Line.153" bus1=s233.1.2.3 bus2=s231.1.2.3 phases=3 length=10 units=ft linecode=sec5 Seasons=1 Ratings=[400,] normamps=400 emergamps=600
New "Line.154" bus1=s237.1.2.3 bus2=s236.1.2.3 phases=3 length=10 units=ft linecode=sec5 Seasons=1 Ratings=[400,] normamps=400 emergamps=600
New "Line.155" bus1=s239.1.2.3 bus2=s236.1.2.3 phases=3 length=10 units=ft linecode=sec5 Seasons=1 Ratings=[400,] normamps=400 emergamps=600
New "Line.156" bus1=s1.1.2.3 bus2=s2.1.2.3 phases=3 length=100 units=ft linecode=sec6 Seasons=1 Ratings=[400,] normamps=400 emergamps=600
New "Line.157" bus1=s2.1.2.3 bus2=s3.1.2.3 phases=3 length=25 units=ft linecode=sec6 Seasons=1 Ratings=[400,] normamps=400 emergamps=600
New "Line.158" bus1=s3.1.2.3 bus2=s4.1.2.3 phases=3 length=25 units=ft linecode=sec6 Seasons=1 Ratings=[400,] normamps=400 emergamps=600
New "Line.159" bus1=s4.1.2.3 bus2=s5.1.2.3 phases=3 length=100 units=ft linecode=sec6 Seasons=1 Ratings=[400,] normamps=400 emergamps=600
New "Line.160" bus1=s5.1.2.3 bus2=s6.1.2.3 phases=3 length=100 units=ft linecode=sec6 Seasons=1 Ratings=[400,] normamps=400 emergamps=600
New "Line.161" bus1=s6.1.2.3 bus2=s7.1.2.3 phases=3 length=100 units=ft linecode=sec6 Seasons=1 Ratings=[400,] normamps=400 emergamps=600
New "Line.162" bus1=s7.1.2.3 bus2=s8.1.2.3 phases=3 length=25 units=ft linecode=sec6 Seasons=1 Ratings=[400,] normamps=400 emergamps=600
New "Line.163" bus1=s8.1.2.3 bus2=s9.1.2.3 phases=3 length=25 units=ft linecode=sec6 Seasons=1 Ratings=[400,] normamps=400 emergamps=600
New "Line.164" bus1=s9.1.2.3 bus2=s10.1.2.3 phases=3 length=100 units=ft linecode=sec6 Seasons=1 Ratings=[400,] normamps=400 emergamps=600
New "Line.165" bus1=s10.1.2.3 bus2=s11.1.2.3 phases=3 length=100 units=ft linecode=sec6 Seasons=1 Ratings=[400,] normamps=400 emergamps=600
New "Line.166" bus1=s11.1.2.3 bus2=s12.1.2.3 phases=3 length=100 units=ft linecode=sec6 Seasons=1 Ratings=[400,] normamps=400 emergamps=600
New "Line.167" bus1=s12.1.2.3 bus2=s13.1.2.3 phases=3 length=25 units=ft linecode=sec6 Seasons=1 Ratings=[400,] normamps=400 emergamps=600
New "Line.168" bus1=s13.1.2.3 bus2=s14.1.2.3 phases=3 length=25 units=ft linecode=sec6 Seasons=1 Ratings=[400,] normamps=400 emergamps=600
New "Line.169" bus1=s14.1.2.3 bus2=s15.1.2.3 phases=3 length=100 units=ft linecode=sec6 Seasons=1 Ratings=[400,] normamps=400 emergamps=600
New "Line.170" bus1=s15.1.2.3 bus2=s16.1.2.3 phases=3 length=100 units=ft linecode=sec6 Seasons=1 Ratings=[400,] normamps=400 emergamps=600
New "Line.171" bus1=s16.1.2.3 bus2=s17.1.2.3 phases=3 length=100 units=ft linecode=sec6 Seasons=1 Ratings=[400,] normamps=400 emergamps=600
New "Line.172" bus1=s17.1.2.3 bus2=s18.1.2.3 phases=3 length=25 units=ft linecode=sec6 Seasons=1 Ratings=[400,] normamps=400 emergamps=600
New "Line.173" bus1=s18.1.2.3 bus2=s19.1.2.3 phases=3 length=25 units=ft linecode=sec6 Seasons=1 Ratings=[400,] normamps=400 emergamps=600
New "Line.174" bus1=s19.1.2.3 bus2=s20.1.2.3 phases=3 length=100 units=ft linecode=sec6 Seasons=1 Ratings=[400,] normamps=400 emergamps=600
New "Line.175" bus1=s20.1.2.3 bus2=s21.1.2.3 phases=3 length=100 units=ft linecode=sec6 Seasons=1 Ratings=[400,] normamps=400 emergamps=600
New "Line.176" bus1=s42.1.2.3 bus2=s43.1.2.3 phases=3 length=100 units=ft linecode=sec6 Seasons=1 Ratings=[400,] normamps=400 emergamps=600
New "Line.177" bus1=s43.1.2.3 bus2=s44.1.2.3 phases=3 length=25 units=ft linecode=sec6 Seasons=1 Ratings=[400,] normamps=400 emergamps=600
New "Line.178" bus1=s44.1.2.3 bus2=s45.1.2.3 phases=3 length=100 units=ft linecode=sec6 Seasons=1 Ratings=[400,] normamps=400 emergamps=600
New "Line.179" bus1=s45.1.2.3 bus2=s46.1.2.3 phases=3 length=25 units=ft linecode=sec6 Seasons=1 Ratings=[400,] normamps=400 emergamps=600
New "Line.180" bus1=s46.1.2.3 bus2=s47.1.2.3 phases=3 length=100 units=ft linecode=sec6 Seasons=1 Ratings=[400,] normamps=400 emergamps=600
New "Line.181" bus1=s47.1.2.3 bus2=s48.1.2.3 phases=3 length=100 units=ft linecode=sec6 Seasons=1 Ratings=[400,] normamps=400 emergamps=600
New "Line.182" bus1=s48.1.2.3 bus2=s49.1.2.3 phases=3 length=25 units=ft linecode=sec6 Seasons=1 Ratings=[400,] normamps=400 emergamps=600
New "Line.183" bus1=s49.1.2.3 bus2=s50.1.2.3 phases=3 length=100 units=ft linecode=sec6 Seasons=1 Ratings=[400,] normamps=400 emergamps=600
New "Line.184" bus1=s50.1.2.3 bus2=s51.1.2.3 phases=3 length=25 units=ft linecode=sec6 Seasons=1 Ratings=[400,] normamps=400 emergamps=600
New "Line.185" bus1=s51.1.2.3 bus2=s52.1.2.3 phases=3 length=100 units=ft linecode=sec6 Seasons=1 Ratings=[400,] normamps=400 emergamps=600
New "Line.186" bus1=s52.1.2.3 bus2=s53.1.2.3 phases=3 length=100 units=ft linecode=sec6 Seasons=1 Ratings=[400,] normamps=400 emergamps=600
New "Line.187" bus1=s53.1.2.3 bus2=s54.1.2.3 phases=3 length=25 units=ft linecode=sec6 Seasons=1 Ratings=[400,] normamps=400 emergamps=600
New "Line.188" bus1=s54.1.2.3 bus2=s55.1.2.3 phases=3 length=100 units=ft linecode=sec6 Seasons=1 Ratings=[400,] normamps=400 emergamps=600
New "Line.189" bus1=s55.1.2.3 bus2=s56.1.2.3 phases=3 length=25 units=ft linecode=sec6 Seasons=1 Ratings=[400,] normamps=400 emergamps=600
New "Line.190" bus1=s56.1.2.3 bus2=s57.1.2.3 phases=3 length=100 units=ft linecode=sec6 Seasons=1 Ratings=[400,] normamps=400 emergamps=600
New "Line.191" bus1=s57.1.2.3 bus2=s58.1.2.3 phases=3 length=100 units=ft linecode=sec6 Seasons=1 Ratings=[400,] normamps=400 emergamps=600
New "Line.192" bus1=s58.1.2.3 bus2=s59.1.2.3 phases=3 length=25 units=ft linecode=sec6 Seasons=1 Ratings=[400,] normamps=400 emergamps=600
New "Line.193" bus1=s59.1.2.3 bus2=s60.1.2.3 phases=3 length=100 units=ft linecode=sec6 Seasons=1 Ratings=[400,] normamps=400 emergamps=600
New "Line.194" bus1=s60.1.2.3 bus2=s61.1.2.3 phases=3 length=25 units=ft linecode=sec6 Seasons=1 Ratings=[400,] normamps=400 emergamps=600
New "Line.195" bus1=s61.1.2.3 bus2=s62.1.2.3 phases=3 length=100 units=ft linecode=sec6 Seasons=1 Ratings=[400,] normamps=400 emergamps=600
New "Line.196" bus1=s83.1.2.3 bus2=s84.1.2.3 phases=3 length=100 units=ft linecode=sec6 Seasons=1 Ratings=[400,] normamps=400 emergamps=600
New "Line.197" bus1=s84.1.2.3 bus2=s85.1.2.3 phases=3 length=25 units=ft linecode=sec6 Seasons=1 Ratings=[400,] normamps=400 emergamps=600
New "Line.198" bus1=s85.1.2.3 bus2=s86.1.2.3 phases=3 length=100 units=ft linecode=sec6 Seasons=1 Ratings=[400,] normamps=400 emergamps=600
New "Line.199" bus1=s86.1.2.3 bus2=s87.1.2.3 phases=3 length=25 units=ft linecode=sec6 Seasons=1 Ratings=[400,] normamps=400 emergamps=600
New "Line.200" bus1=s87.1.2.3 bus2=s88.1.2.3 phases=3 length=100 units=ft linecode=sec6 Seasons=1 Ratings=[400,] normamps=400 emergamps=600
New "Line.201" bus1=s88.1.2.3 bus2=s89.1.2.3 phases=3 length=100 units=ft linecode=sec6 Seasons=1 Ratings=[400,] normamps=400 emergamps=600
New "Line.202" bus1=s89.1.2.3 bus2=s90.1.2.3 phases=3 length=25 units=ft linecode=sec6 Seasons=1 Ratings=[400,] normamps=400 emergamps=600
New "Line.203" bus1=s90.1.2.3 bus2=s91.1.2.3 phases=3 length=100 units=ft linecode=sec6 Seasons=1 Ratings=[400,] normamps=400 emergamps=600
New "Line.204" bus1=s91.1.2.3 bus2=s92.1.2.3 phases=3 length=25 units=ft linecode=sec6 Seasons=1 Ratings=[400,] normamps=400 emergamps=600
New "Line.205" bus1=s92.1.2.3 bus2=s93.1.2.3 phases=3 length=100 units=ft linecode=sec6 Seasons=1 Ratings=[400,] normamps=400 emergamps=600
New "Line.206" bus1=s93.1.2.3 bus2=s94.1.2.3 phases=3 length=100 units=ft linecode=sec6 Seasons=1 Ratings=[400,] normamps=400 emergamps=600
New "Line.207" bus1=s94.1.2.3 bus2=s95.1.2.3 phases=3 length=25 units=ft linecode=sec6 Seasons=1 Ratings=[400,] normamps=400 emergamps=600
New "Line.208" bus1=s95.1.2.3 bus2=s96.1.2.3 phases=3 length=100 units=ft linecode=sec6 Seasons=1 Ratings=[400,] normamps=400 emergamps=600
New "Line.209" bus1=s96.1.2.3 bus2=s97.1.2.3 phases=3 length=25 units=ft linecode=sec6 Seasons=1 Ratings=[400,] normamps=400 emergamps=600
New "Line.210" bus1=s97.1.2.3 bus2=s98.1.2.3 phases=3 length=100 units=ft linecode=sec6 Seasons=1 Ratings=[400,] normamps=400 emergamps=600
New "Line.211" bus1=s98.1.2.3 bus2=s99.1.2.3 phases=3 length=100 units=ft linecode=sec6 Seasons=1 Ratings=[400,] normamps=400 emergamps=600
New "Line.212" bus1=s99.1.2.3 bus2=s100.1.2.3 phases=3 length=25 units=ft linecode=sec6 Seasons=1 Ratings=[400,] normamps=400 emergamps=600
New "Line.213" bus1=s100.1.2.3 bus2=s101.1.2.3 phases=3 length=100 units=ft linecode=sec6 Seasons=1 Ratings=[400,] normamps=400 emergamps=600
New "Line.214" bus1=s101.1.2.3 bus2=s102.1.2.3 phases=3 length=25 units=ft linecode=sec6 Seasons=1 Ratings=[400,] normamps=400 emergamps=600